LTspice 26.0.1 for Windows
Circuit: C:\Users\YangGeon\Desktop\ECG_AFE_LTspice\ltspice_validation\schematics\xmodel_aligned\xma_gbw_500k.cir
Start Time: Wed Jul 15 19:48:45 2026
Options:plotwinsize=0 plotwinsize=0
solver = Normal
Maximum thread count: 32
tnom = 27
temp = 27
method = trap
AsciiRawFile = true
Direct Newton iteration succeeded in finding operating point.
Total elapsed time: 37.911 seconds.

Files loaded:
C:\Users\YangGeon\Desktop\ECG_AFE_LTspice\ltspice_validation\schematics\xmodel_aligned\xma_gbw_500k.cir
C:\Users\YangGeon\Desktop\ECG_AFE_LTspice\ltspice_validation\schematics\xmodel_aligned\XOpAmp_XMODEL.lib

