LTspice 26.0.1 for Windows
Circuit: <USER_HOME>\Desktop\ECG_AFE_LTspice\ltspice_validation\schematics\xmodel_aligned\xma_mm_1pct_notch.cir
Start Time: Wed Jul 15 19:32:37 2026
Options:plotwinsize=0
solver = Normal
Maximum thread count: 32
tnom = 27
temp = 27
method = trap
AsciiRawFile = true
Direct Newton iteration succeeded in finding operating point.
Total elapsed time: 0.307 seconds.

Files loaded:
<USER_HOME>\Desktop\ECG_AFE_LTspice\ltspice_validation\schematics\xmodel_aligned\xma_mm_1pct_notch.cir
<USER_HOME>\Desktop\ECG_AFE_LTspice\ltspice_validation\schematics\xmodel_aligned\XOpAmp_XMODEL.lib

