LTspice 26.0.1 for Windows
Circuit: C:\Users\YangGeon\Desktop\ECG_AFE_LTspice\ltspice_validation\schematics\xmodel_aligned\xma_mm_0p1pct_cmrr.cir
Start Time: Wed Jul 15 19:32:32 2026
Options:plotwinsize=0
solver = Normal
Maximum thread count: 32
tnom = 27
temp = 27
method = trap
AsciiRawFile = true
Direct Newton iteration succeeded in finding operating point.
Total elapsed time: 0.054 seconds.

Files loaded:
C:\Users\YangGeon\Desktop\ECG_AFE_LTspice\ltspice_validation\schematics\xmodel_aligned\xma_mm_0p1pct_cmrr.cir
C:\Users\YangGeon\Desktop\ECG_AFE_LTspice\ltspice_validation\schematics\xmodel_aligned\XOpAmp_XMODEL.lib

