LTspice 26.0.1 for Windows
Circuit: C:\Users\YangGeon\Desktop\ECG_AFE_LTspice\ltspice_validation\schematics\xmodel_aligned\xma_ac_nominal.cir
Start Time: Wed Jul 15 19:32:27 2026
Options:plotwinsize=0
solver = Normal
Maximum thread count: 32
tnom = 27
temp = 27
method = trap
AsciiRawFile = true
Direct Newton iteration succeeded in finding operating point.
Total elapsed time: 0.182 seconds.

Files loaded:
C:\Users\YangGeon\Desktop\ECG_AFE_LTspice\ltspice_validation\schematics\xmodel_aligned\xma_ac_nominal.cir
C:\Users\YangGeon\Desktop\ECG_AFE_LTspice\ltspice_validation\schematics\xmodel_aligned\XOpAmp_XMODEL.lib

