LTspice 26.0.1 for Windows
Circuit: C:\Users\YangGeon\Desktop\ECG_AFE_LTspice\ltspice_validation\schematics\xmodel_aligned\xma_pli60.cir
Start Time: Wed Jul 15 19:42:08 2026
Options:plotwinsize=0 plotwinsize=0
solver = Normal
Maximum thread count: 32
tnom = 27
temp = 27
method = trap
AsciiRawFile = true
Direct Newton iteration succeeded in finding operating point.
Total elapsed time: 48.518 seconds.

Files loaded:
C:\Users\YangGeon\Desktop\ECG_AFE_LTspice\ltspice_validation\schematics\xmodel_aligned\xma_pli60.cir
C:\Users\YangGeon\Desktop\ECG_AFE_LTspice\ltspice_validation\schematics\xmodel_aligned\XOpAmp_XMODEL.lib

